13
	Energy:      49.2824560
C         -2.09930       -1.05142       -0.34178
C         -1.54122       -2.18103       -0.90546
C          0.04585       -0.70827       -0.43289
C         -0.17721       -1.96278       -0.96337
H         -2.06921       -3.06485       -1.23717
H          0.57062       -2.64233       -1.34918
N         -1.12754       -0.16462       -0.05906
H         -3.15237       -0.88888       -0.15042
H          1.00850       -0.22440       -0.32764
C         -1.32013        1.14790        0.54423
H         -0.34652        1.66930        0.66487
H         -1.79181        1.03301        1.54271
H         -1.97852        1.76281       -0.10465
