20
	Energy:     476.0748066
S         -2.72103        1.07768       -1.40226
O         -3.74017        0.95267       -0.02238
O         -2.62467       -0.45529       -1.44097
C         -2.96160        2.91934       -1.51306
C         -4.45244        3.23250       -1.56160
C         -3.60002        3.76802       -0.41866
H         -5.21785        2.61976       -1.04226
H         -4.79105        4.14492       -2.09757
H         -3.43924        3.21592        0.52721
H         -3.12033        4.76378       -0.53235
H         -2.55771        3.40519       -2.42722
C         -0.89519        1.24504       -1.13539
C         -0.21443        0.14232       -0.21137
H         -0.88224       -0.59805        0.27862
C          0.00679        1.26481        0.73116
H          0.75997       -0.24467       -0.58055
C         -0.55030        2.16282       -0.00644
H         -0.32123        1.50556       -2.05087
H          0.47098        1.34470        1.70833
H         -0.68565        3.22386        0.17399
