14
	Energy:     501.2431213
S         -2.70843        0.96937       -1.82605
O         -4.12062        0.71171       -0.87830
O         -2.43723       -0.54046       -1.74412
C         -3.09455        2.79164       -1.93784
C         -4.14775        3.31742       -0.94583
C         -3.00256        3.69703       -0.67427
H         -3.19891        3.26837       -2.93379
C         -1.05824        1.32971       -1.10190
H         -5.10323        3.52149       -0.47113
H         -2.77887        4.40841        0.11296
C         -0.32540        0.43846       -0.41002
H         -0.63268        2.31962       -1.23792
H         -0.66134       -0.57647       -0.22772
H          0.64540        0.72484       -0.01850
