13
	Energy:     164.9311414
S         -1.25702       -0.87028        0.43587
O         -1.84506        0.45105       -0.09003
O         -0.05722       -0.21895       -0.27659
C         -3.04970       -1.18249        0.00141
H         -3.28465       -2.25849        0.16845
H         -3.39341       -0.93487       -1.03895
H         -3.72270       -0.65331        0.71763
N         -1.21838       -1.89360       -1.04004
C         -0.32532       -3.03428       -0.85297
H         -1.02114       -1.39827       -1.94537
H         -0.39900       -3.70891       -1.73164
H         -0.62049       -3.60606        0.05213
H          0.72685       -2.69323       -0.75181
