18
Lattice="20.0 0.0 0.0 0.0 20.0 0.0 0.0 0.0 20.0"
C         -3.33359        0.48930       -0.02759
C         -2.34566        1.09497        0.63552
H         -3.12129       -0.26048       -0.78416
H         -4.36627        0.74465        0.18697
C         -0.93214        0.76388        0.36056
H         -2.59157        1.84093        1.38659
C          0.05630        1.37424        1.02787
H         -0.18093        2.12228        1.78108
C          1.47036        1.04360        0.75309
H         -0.69553        0.01582       -0.39284
C          2.45867        1.65454        1.42005
H          1.70768        0.29539        0.00007
H          2.22185        2.40290        2.17309
C          3.87232        1.32405        1.14509
C          4.85997        1.93107        1.80741
H          4.11856        0.57759        0.39463
H          4.64728        2.68146        2.56327
H          5.89279        1.67630        1.59287
