12
Lattice="20.0 0.0 0.0 0.0 20.0 0.0 0.0 0.0 20.0"
C         -0.43234        0.75622        1.30240
C          0.91132        0.52689        0.99396
C          1.24450       -0.50032        0.10727
H          1.68304        1.14216        1.44053
O          2.41097       -0.71371       -0.17243
C          0.23261       -1.28147       -0.45689
C         -1.09947       -1.02131       -0.12372
H          0.47300       -2.08189       -1.14614
N         -1.40524       -0.01559        0.74264
H         -1.88978       -1.62175       -0.55628
H         -2.40519        0.16733        0.98242
H         -0.69935        1.55007        1.98848
