39
Lattice="20.0 0.0 0.0 0.0 20.0 0.0 0.0 0.0 20.0"
C         -3.36835        0.04601        1.02364
C         -3.35797        0.23818       -0.35770
C         -2.17930        0.12697        1.75437
H         -4.30043       -0.16619        1.53138
C         -2.15926        0.51786       -1.01307
H         -4.28090        0.17718       -0.91980
C         -0.95175        0.38928        1.10591
H         -2.21986       -0.03470        2.82308
C         -0.96525        0.59832       -0.29112
H         -2.15463        0.67948       -2.08331
C          0.32372        0.50027        1.89860
H         -0.05757        0.84275       -0.82461
C          0.24304        1.09927        3.17734
C          1.38272        1.33186        3.94098
H         -0.70657        1.42615        3.57874
C          2.63235        0.97819        3.45561
H          1.29520        1.80233        4.91200
C          2.75384        0.37253        2.20886
H          3.51500        1.16222        4.05474
C          1.61964        0.10445        1.40748
H          3.74364        0.07832        1.88691
C          1.84336       -0.65071        0.12431
C          0.92948       -1.63197       -0.31115
C          3.00711       -0.42943       -0.64442
H          0.04607       -1.86297        0.26738
C          1.15731       -2.34522       -1.48812
C          2.30023       -2.10405       -2.24892
H          0.44539       -3.09476       -1.80915
C          3.23821       -1.14505       -1.83252
H          3.72798        0.31446       -0.33165
C          4.46405       -0.87581       -2.62241
H          2.44934       -2.67268       -3.15577
C          4.84768       -1.48225       -3.80701
H          4.32825       -2.25133       -4.36119
C          6.04781       -0.90568       -4.15583
C          6.33311        0.01732       -3.17217
H          6.64730       -1.13152       -5.02745
O          5.37249        0.01050       -2.27594
H          7.20580        0.65503       -3.12941
