17
	Energy:      76.7498349
P         -0.46540        1.97931       -0.08861
N         -1.02241        1.74290       -1.58796
O         -1.38142        0.80280        0.82930
C          1.38487        1.77968       -0.17809
H          1.63055        0.75874       -0.53702
H          1.82751        1.93561        0.82680
H          1.80322        2.52605       -0.88426
C         -0.56692        0.32126        1.86686
O         -1.04779        3.58764        0.27996
C         -1.04460        3.74550        1.67377
H         -1.30809        4.79770        1.90529
H         -0.03479        3.56709        2.10462
H         -1.82042        3.10437        2.14521
H         -0.26599        1.13392        2.56194
H          0.31380       -0.22552        1.46704
H         -1.15535       -0.40772        2.46041
H         -1.53140        2.49181       -2.07706
