26
	Energy:      20.1949707
C          1.04537        5.90008       -1.59596
C          1.24737        4.58736       -0.79811
H          0.79207        6.75643       -0.94039
H          0.19891        5.79997       -2.31002
H          1.95816        6.15041       -2.17846
C         -0.05068        4.29437       -0.01016
C          2.51736        4.70155        0.15063
C          1.44534        3.46172       -1.84410
C          2.41358        5.88088        1.14938
H          3.39089        4.91344       -0.50635
C          2.83078        3.37728        0.91487
H          0.58915        3.42925       -2.55282
H          1.49318        2.45715       -1.37991
H          2.37234        3.63130       -2.43319
H         -0.27482        5.10132        0.71691
H          0.01440        3.33115        0.53558
H         -0.91817        4.22305       -0.70176
H          2.00387        3.12075        1.60926
C          4.13740        3.40394        1.71417
H          2.95400        2.54883        0.19190
H          2.27050        6.84858        0.63348
H          3.35421        6.00953        1.71846
H          1.58886        5.72575        1.87449
H          4.09828        4.13167        2.54838
H          4.99245        3.64423        1.04727
H          4.31140        2.40334        2.16380
