34
	Energy:       8.1308157
C         -4.05768        3.32357       -1.60001
C         -2.93461        3.44806       -0.88673
H         -4.06888        2.77143       -2.53495
H         -4.97704        3.77868       -1.24601
C         -1.64237        2.83521       -1.33911
H         -2.95420        4.00631        0.04444
H         -1.75329        2.29245       -2.30255
H         -1.28714        2.12033       -0.56822
H         -0.88361        3.63473       -1.46790
C         -4.22844        4.97464        4.40389
C         -3.00307        4.54481        4.74420
C         -4.40199        6.24019        3.60901
C         -5.45237        4.19968        4.81105
H         -2.11704        5.10085        4.45290
H         -2.87231        3.63240        5.31807
H         -3.42899        6.72080        3.36963
H         -5.01405        6.96126        4.19029
H         -4.92224        6.01018        2.65574
H         -5.19587        3.28782        5.39213
H         -6.01415        3.89034        3.90477
H         -6.10490        4.84183        5.43894
C        -10.31858        4.21978        1.83008
C         -9.64858        3.08158        1.59070
H        -10.62941        4.48087        2.83749
H        -10.56473        4.90362        1.02332
C         -9.33316        2.17314        2.72931
C         -9.22833        2.74179        0.18047
C         -8.67109        1.01907        2.57863
H         -9.65232        2.45333        3.72978
H         -8.32523        0.68040        1.60850
H         -8.47044        0.39775        3.44544
H         -9.53962        3.52053       -0.54867
H         -9.69216        1.78085       -0.12627
H         -8.12301        2.64928        0.13190
