6
	Energy:       0.5684439
C          0.39572       -0.97687        0.54863
O          0.50023       -0.43537        1.63789
N          0.86596       -0.36935       -0.56070
H         -0.07733       -1.95038        0.47384
H          1.31725        0.55559       -0.50176
H          0.77449       -0.83188       -1.47653
