12
	Energy:      11.0950098
C          0.37911       -1.05908        0.63030
C          0.47749       -0.37062        1.98332
O          0.89581       -0.19850       -0.36132
C          0.78905       -0.82321       -1.61993
H          1.21731       -0.14279       -2.38429
H         -0.27484       -0.99609       -1.89631
H          1.37950       -1.76579       -1.65770
H         -0.69564       -1.28404        0.44124
H          0.97105       -2.00134        0.68390
H         -0.10972        0.57223        1.97430
H          1.53820       -0.13601        2.21500
H          0.07524       -1.03750        2.77506
