9
	Energy:       4.5191815
C          0.48596       -0.84240        0.68391
C          0.54362       -0.20400        2.06580
O          1.01542        0.02700       -0.27928
H         -0.06400        0.72546        2.08208
H          1.59453        0.04279        2.32692
H          0.14040       -0.91033        2.82170
H         -0.56107       -1.12027        0.42528
H          1.08559       -1.77702        0.68573
H          0.31167        0.70026       -0.47238
