6
	Energy:      -0.1607144
C         -0.10840        0.03570        1.17320
N         -0.33958       -1.07291        1.41125
C          0.18390        1.43740        0.87222
H         -0.48217        2.09129        1.47192
H          0.01377        1.62724       -0.20754
H          1.24184        1.65705        1.12394
