10
	Energy:       2.0623264
C         -0.54855       -0.28864        0.67961
N         -1.04992       -1.41340        1.05173
N         -1.03687        0.34224       -0.49130
C          0.54957        0.36479        1.47229
H          0.83141       -0.23898        2.36097
H          0.21123        1.36416        1.81692
H          1.44606        0.48701        0.82936
H         -0.64345        1.24317       -0.79964
H         -1.78914       -0.09460       -1.04383
H         -0.71865       -1.89980        1.89793
