34
	Energy:      17.4828487
C          0.47532        0.24276        0.41348
H          1.57750        0.10936        0.44146
H          0.20837        0.88218       -0.45769
H          0.18465        0.76746        1.34897
N         -0.18804       -1.06686        0.33953
C          0.22343       -1.78052       -0.87831
C         -1.64827       -0.90235        0.36599
H          1.32326       -1.93824       -0.87564
H         -0.05873       -1.21429       -1.79423
H         -0.25279       -2.78387       -0.91371
H         -1.95890       -0.38733        1.29974
H         -2.14326       -1.89620        0.36191
H         -2.00576       -0.31405       -0.50862
N          3.90788        1.26431       -1.56344
C          5.36347        1.13846       -1.49065
H          3.52526        1.26825       -0.58947
C          3.32496        0.13444       -2.28745
N         -2.62225       -4.78790       -2.55406
H         -1.62358       -4.79282       -2.24447
C         -3.32000       -3.72145       -1.85082
H         -3.05194       -5.70166       -2.28221
N         -2.31836        1.35266        3.61239
H         -1.27422        1.33008        3.61410
H         -2.62627        2.05075        4.32554
H         -2.66001        0.41292        3.91403
H          3.70817        0.10245       -3.33002
H          2.22223        0.25573       -2.33032
H          3.55531       -0.82569       -1.77523
H         -2.86599       -2.74222       -2.11203
H         -3.25055       -3.87771       -0.75260
H         -4.38905       -3.71229       -2.15073
H          5.80283        1.14627       -2.51210
H          5.65149        0.20012       -0.96715
H          5.77950        2.00071       -0.92613
