15
	Energy:      -2.1516916
C          0.68385       -0.46313        0.83422
F          1.95633       -0.62828        1.34650
F          0.54204       -1.23463       -0.30299
H          0.52387        0.60452        0.57955
F         -0.24658       -0.85603        1.77638
C          3.22730        1.55962       -1.18830
F          4.56185        1.64527       -0.84182
H          3.07089        2.03424       -2.17871
H          2.61286        2.08237       -0.42679
H          2.92605        0.49322       -1.23843
C         -1.10961        1.58878       -1.96737
F          0.15094        1.21243       -2.38839
H         -1.64070        2.09550       -2.79913
H         -1.02028        2.28361       -1.10715
F         -1.82010        0.46833       -1.58232
