30
	Energy:      16.7822453
C          2.44996        2.08491       -2.55487
C          2.79226        1.31840       -1.26940
C          1.42492        1.30021       -3.38668
H          3.37319        2.24534       -3.15179
H          2.02866        3.08018       -2.29115
C          0.15353        1.04441       -2.56398
H          1.86694        0.32750       -3.69670
H          1.16912        1.87344       -4.30341
C          0.49562        0.27795       -1.27785
H         -0.57175        0.45811       -3.16795
H         -0.31874        2.01673       -2.30099
C          1.52182        1.06196       -0.44693
H          0.91618       -0.71758       -1.54161
H         -0.42709        0.11770       -0.67983
H          3.51725        1.90438       -0.66481
H          3.26446        0.34613       -1.53268
H          1.78249        0.48740        0.46599
H          1.07985        2.03374       -0.13395
C          2.05276       -0.01259        4.30750
C          0.90350       -0.39634        3.60793
C         -0.12610       -1.07233        4.27018
C         -0.00754       -1.36480        5.63285
C          1.14129       -0.98106        6.33324
C          2.17151       -0.30505        5.67051
H          3.06025       -0.00829        6.21244
H          2.84953        0.51044        3.79444
H          0.80965       -0.17080        2.55497
H         -1.01459       -1.36886        3.72782
H         -0.80457       -1.88778        6.14517
H          1.23282       -1.20725        7.38765
