33
	Energy:     521.0277861
C          8.07779        0.63280        5.78450
C          8.05477        0.76432        4.45314
N          6.86735        0.38008        6.50251
C          5.72764        0.26747        5.94179
C          5.65176        0.40534        4.47046
C          6.76366        0.64295        3.75721
H          9.01586        0.71763        6.32329
O          4.58075        0.06816        6.22575
H          4.70480        0.31888        3.93434
H          8.96738        0.95621        3.89803
H          6.71347        0.74494        2.67762
C         11.96837        2.60688       -0.82628
C         11.95738        2.89293       -2.19047
N         10.81089        2.27903       -0.19426
C          9.63620        2.22577       -0.87720
C         10.74429        2.83346       -2.87451
N          9.60723        2.50182       -2.20835
H         12.89549        2.64527       -0.27000
H         12.87128        3.15560       -2.70754
H         10.70600        3.05054       -3.93366
H          8.72309        1.96333       -0.36062
C          4.67645        1.39884       -0.90550
C          4.50985        1.64548       -2.20561
C          3.50568        1.02635       -0.07124
C          2.26432        0.91925       -0.54972
C          2.12407        1.20090       -1.99475
C          3.16161        1.54088       -2.78081
H          5.66224        1.46932       -0.45649
H          3.67562        0.83207        0.98358
F          5.56810        1.98774       -2.98599
H          3.00509        1.73765       -3.83688
H          1.13761        1.13077       -2.44594
O          1.25631        0.62822        0.02806
