14
	Energy:      15.1995705
C          9.74649        1.50259        3.50838
C          9.48786        1.34404        4.86962
C          8.18541        1.06788        5.32437
C          7.14316        0.95381        4.37798
C          8.71152        1.38849        2.57877
C          7.41084        1.11447        3.01119
H         10.75459        1.71450        3.17896
H          8.91942        1.51276        1.52348
H         10.30477        1.43669        5.57161
N          7.93487        0.90776        6.72298
H          6.61147        1.02701        2.28502
H          6.12911        0.74178        4.69545
O          6.83257        0.67323        7.11781
O          8.82820        1.00751        7.50991
