21
	Energy:      56.7088001
C         14.87781       -0.92143        6.12539
C         14.30435       -0.79689        4.91906
C         14.04288       -1.00127        7.37858
C         12.56279       -0.92419        7.10039
C         12.10017       -0.79952        5.84738
O         12.95209       -0.73861        4.78938
C          5.05708       -0.98158       11.05300
C          5.06973       -0.88243        9.67797
C          3.73219       -0.96905       11.42466
C          3.00783       -0.86294       10.25651
O          3.83427       -0.81367        9.23596
H          5.94837       -0.86293        9.04723
H          1.92993       -0.82493       10.17466
H         15.95971       -0.96578        6.20389
H         14.92675       -0.74161        4.03196
H          5.91526       -1.05450       11.70746
H          3.33849       -1.03013       12.43042
H         14.32424       -0.16248        8.04900
H         14.26016       -1.96133        7.89175
H         11.86314       -0.97067        7.92923
H         11.03055       -0.74626        5.67290
