7
	Energy:      -0.0922364
He         1.52290       -2.68707       16.27871
Ne         4.16945       -2.63225       17.35770
Al         3.20720       -1.77655       10.83920
F          4.96175       -2.00171       10.50132
F          2.87731       -2.14341       12.57136
F          2.74191       -0.07271       10.48714
F          2.24766       -2.88840        9.79668
